Version 4
SHEET 1 2052 680
WIRE 0 48 -240 48
WIRE 224 48 80 48
WIRE 224 64 224 48
WIRE 1024 64 704 64
WIRE 1168 64 1024 64
WIRE 1776 64 1456 64
WIRE 1920 64 1776 64
WIRE 176 80 160 80
WIRE 1024 80 1024 64
WIRE 1168 80 1168 64
WIRE 1776 80 1776 64
WIRE 1920 80 1920 64
WIRE -240 128 -240 48
WIRE 704 144 704 64
WIRE 1456 144 1456 64
WIRE 1024 160 960 160
WIRE 1120 160 1024 160
WIRE 1776 160 1712 160
WIRE 1872 160 1776 160
WIRE 224 176 224 160
WIRE 1168 192 1168 176
WIRE 1920 192 1920 176
WIRE 160 208 160 80
WIRE 160 208 -176 208
WIRE 896 208 784 208
WIRE 1120 208 1120 160
WIRE 1648 208 1536 208
WIRE 1872 208 1872 160
WIRE -176 224 -176 208
WIRE -160 224 -176 224
WIRE 784 240 784 208
WIRE 1536 240 1536 208
WIRE 160 256 160 208
WIRE 176 256 160 256
WIRE 1712 288 1712 256
WIRE 1776 288 1776 240
WIRE 1776 288 1712 288
WIRE 1920 288 1776 288
WIRE 1168 304 1168 288
WIRE 1920 304 1920 288
WIRE -240 368 -240 208
WIRE 96 368 -240 368
WIRE 224 368 224 272
WIRE 224 368 96 368
WIRE 96 384 96 368
WIRE 704 384 704 224
WIRE 1040 384 704 384
WIRE 1168 384 1040 384
WIRE 1456 384 1456 224
WIRE 1792 384 1456 384
WIRE 1920 384 1792 384
WIRE 1040 400 1040 384
WIRE 1792 400 1792 384
FLAG 96 384 0
FLAG -160 304 0
FLAG 1040 400 0
FLAG 784 320 0
FLAG 1024 240 0
FLAG 960 256 0
FLAG 1792 400 0
FLAG 1536 320 0
SYMBOL voltage -240 112 R0
WINDOW 123 0 0 Left 0
WINDOW 39 0 0 Left 0
SYMATTR InstName V1
SYMATTR Value 20
SYMBOL nmos 176 176 R0
SYMATTR InstName M1
SYMATTR Value BSB012N03LX3
SYMBOL nmos 176 160 M180
SYMATTR InstName M2
SYMATTR Value BSB012N03LX3
SYMBOL voltage -160 208 R0
WINDOW 0 31 74 Left 2
WINDOW 123 0 0 Left 0
WINDOW 39 0 0 Left 0
SYMATTR InstName V2
SYMATTR Value 3.3
SYMBOL res -16 64 R270
WINDOW 0 32 56 VTop 2
WINDOW 3 0 56 VBottom 2
SYMATTR InstName R1
SYMATTR Value 1
SYMBOL voltage 704 128 R0
WINDOW 123 0 0 Left 0
WINDOW 39 0 0 Left 0
SYMATTR InstName V4
SYMATTR Value 20
SYMBOL voltage 784 224 R0
WINDOW 0 31 74 Left 2
WINDOW 123 0 0 Left 0
WINDOW 39 0 0 Left 0
SYMATTR InstName V6
SYMATTR Value 3.3
SYMBOL res 1152 288 R0
SYMATTR InstName R2
SYMATTR Value 20
SYMBOL pmos 1120 80 R0
SYMATTR InstName M3
SYMATTR Value IRF7404
SYMBOL pmos 1120 288 M180
SYMATTR InstName M4
SYMATTR Value IRF7404
SYMBOL npn 896 160 R0
SYMATTR InstName Q1
SYMATTR Value BC547B
SYMBOL res 1008 144 R0
SYMATTR InstName R3
SYMATTR Value 100k
SYMBOL res 1008 64 R0
SYMATTR InstName R4
SYMATTR Value 1k
SYMBOL voltage 1456 128 R0
WINDOW 123 0 0 Left 0
WINDOW 39 0 0 Left 0
SYMATTR InstName V3
SYMATTR Value 20
SYMBOL voltage 1536 224 R0
WINDOW 0 31 74 Left 2
WINDOW 123 0 0 Left 0
WINDOW 39 0 0 Left 0
SYMATTR InstName V5
SYMATTR Value 3.3
SYMBOL res 1904 288 R0
SYMATTR InstName R5
SYMATTR Value 10
SYMBOL pmos 1872 80 R0
SYMATTR InstName M5
SYMATTR Value FDS4435A
SYMBOL pmos 1872 288 M180
SYMATTR InstName M6
SYMATTR Value FDS4435A
SYMBOL npn 1648 160 R0
SYMATTR InstName Q2
SYMATTR Value BC547B
SYMBOL res 1760 144 R0
SYMATTR InstName R6
SYMATTR Value 100k
SYMBOL res 1760 64 R0
SYMATTR InstName R7
SYMATTR Value 1k
TEXT -112 408 Left 2 !.tran 1
RECTANGLE Normal 1344 480 576 -32 2
