Version 4
SHEET 1 2132 1172
WIRE -96 -144 -176 -144
WIRE 64 -144 -96 -144
WIRE 352 -144 192 -144
WIRE 448 -144 352 -144
WIRE 672 -144 528 -144
WIRE -96 -96 -96 -144
WIRE 0 -96 -96 -96
WIRE 288 -96 192 -96
WIRE -176 48 -176 -144
WIRE -96 48 -176 48
WIRE 64 48 -96 48
WIRE 368 48 192 48
WIRE 448 48 368 48
WIRE 672 48 672 -144
WIRE 672 48 528 48
WIRE -96 96 -96 48
WIRE -48 96 -96 96
WIRE 64 96 16 96
WIRE 288 96 288 -96
WIRE 288 96 192 96
WIRE 352 112 352 -80
WIRE 368 112 352 112
WIRE -176 240 -176 48
WIRE -96 240 -176 240
WIRE 64 240 -96 240
WIRE 256 240 192 240
WIRE 368 240 256 240
WIRE 464 240 368 240
WIRE 672 240 672 48
WIRE 672 240 544 240
WIRE 1008 240 672 240
WIRE 1152 240 1008 240
WIRE 1280 240 1152 240
WIRE 1008 272 1008 240
WIRE -96 288 -96 240
WIRE -48 288 -96 288
WIRE 32 288 16 288
WIRE 64 288 32 288
WIRE 256 288 192 288
WIRE 288 288 288 96
WIRE 288 288 256 288
WIRE 368 288 368 240
WIRE 1280 288 1280 240
WIRE -176 336 -176 240
WIRE 1152 336 1152 240
WIRE 1008 384 1008 352
WIRE 1008 416 1008 384
WIRE 1280 416 1280 368
WIRE 352 528 352 112
WIRE 368 528 368 352
WIRE 368 528 352 528
WIRE 1008 528 1008 496
WIRE 1008 528 368 528
WIRE 1152 528 1152 400
WIRE 1152 528 1008 528
WIRE 1280 528 1280 496
WIRE 1280 528 1152 528
WIRE -176 544 -176 416
WIRE 128 544 128 336
WIRE 1280 544 1280 528
WIRE 288 576 288 288
WIRE 480 576 288 576
WIRE 688 576 480 576
WIRE 2064 576 752 576
WIRE 1200 672 1008 672
WIRE 1200 736 1200 672
WIRE 1280 736 1200 736
WIRE 1504 752 1456 752
WIRE 1616 752 1584 752
WIRE 1008 768 1008 672
WIRE 1040 768 1008 768
WIRE 352 784 208 784
WIRE 1200 784 1200 736
WIRE 1200 784 1104 784
WIRE 480 800 480 640
WIRE 480 800 416 800
WIRE 912 800 864 800
WIRE 1008 800 992 800
WIRE 1040 800 1008 800
WIRE 1280 816 1280 736
WIRE 1344 816 1280 816
WIRE 1456 816 1456 752
WIRE 1456 816 1424 816
WIRE 208 832 208 784
WIRE 1856 848 1712 848
WIRE 864 864 864 800
WIRE 1008 864 1008 800
WIRE 1456 864 1456 816
WIRE 1504 864 1456 864
WIRE 2064 864 2064 576
WIRE 2064 864 1920 864
WIRE 1616 880 1616 752
WIRE 1616 880 1568 880
WIRE 1856 880 1616 880
WIRE 1344 896 1248 896
WIRE 1456 896 1424 896
WIRE 1504 896 1456 896
WIRE 1248 912 1248 896
WIRE 1456 912 1456 896
WIRE 1712 944 1712 848
WIRE 1712 1072 1712 1024
FLAG -176 544 0
FLAG -176 240 in
FLAG 128 544 0
FLAG 1280 240 out
FLAG 32 288 vc
FLAG 256 240 sw
FLAG 256 288 fb
FLAG 1280 544 0
FLAG 1008 384 ref
FLAG 208 912 0
FLAG 1008 944 0
FLAG 864 944 0
FLAG 1072 816 0
FLAG 1536 912 0
FLAG 1456 992 0
FLAG 1248 992 0
FLAG 1808 480 0
FLAG 1808 400 12v
FLAG 1536 848 12v
FLAG 1072 752 12v
FLAG 1888 832 12v
FLAG 1888 896 0
FLAG 1712 1152 0
FLAG 384 768 12v
FLAG 384 832 0
FLAG 352 816 ref
FLAG 128 144 0
FLAG 128 -48 0
SYMBOL cap 16 272 R90
WINDOW 0 0 32 VBottom 2
WINDOW 3 32 32 VTop 2
SYMATTR InstName CC
SYMATTR Value 1µ
SYMBOL ind 448 256 R270
WINDOW 0 32 56 VTop 2
WINDOW 3 5 56 VBottom 2
SYMATTR InstName L1
SYMATTR Value 47µ
SYMBOL schottky 352 352 M180
WINDOW 0 24 64 Left 2
WINDOW 3 24 0 Left 2
SYMATTR InstName D1
SYMATTR Value MBRB2545CT
SYMATTR Description Zener Diode
SYMATTR Type zener
SYMBOL XL4016 128 272 R0
SYMATTR InstName U1
SYMBOL cap 1136 336 R0
SYMATTR InstName Cout
SYMATTR Value 1000µ
SYMBOL res 992 256 R0
SYMATTR InstName R1
SYMATTR Value 9K
SYMBOL res 992 400 R0
SYMATTR InstName R2
SYMATTR Value 1K
SYMBOL res 1264 400 R0
SYMATTR InstName R_load
SYMATTR Value 1
SYMBOL voltage -176 320 R0
WINDOW 123 0 0 Left 0
WINDOW 39 0 0 Left 0
SYMATTR InstName V1
SYMATTR Value 30
SYMBOL voltage 208 816 R0
WINDOW 123 0 0 Left 0
WINDOW 39 0 0 Left 0
SYMATTR InstName V2
SYMATTR Value 1.8
SYMBOL voltage 1280 272 R0
SYMATTR InstName V3
SYMBOL OpAmps\\UniversalOpAmp 1072 784 R0
SYMATTR InstName U2
SYMBOL OpAmps\\UniversalOpAmp 1536 880 R0
SYMATTR InstName U3
SYMBOL res 1008 784 R90
WINDOW 0 0 56 VBottom 2
WINDOW 3 32 56 VTop 2
SYMATTR InstName R9
SYMATTR Value 10k
SYMBOL voltage 864 848 R0
WINDOW 123 0 0 Left 0
WINDOW 39 0 0 Left 0
SYMATTR InstName V4
SYMATTR Value 3.3
SYMBOL res 1440 896 R0
SYMATTR InstName R11
SYMATTR Value 3.4k
SYMBOL res 1440 880 R90
WINDOW 0 0 56 VBottom 2
WINDOW 3 32 56 VTop 2
SYMATTR InstName R12
SYMATTR Value 10k
SYMBOL res 1440 800 R90
WINDOW 0 0 56 VBottom 2
WINDOW 3 32 56 VTop 2
SYMATTR InstName R13
SYMATTR Value 10k
SYMBOL res 1600 736 R90
WINDOW 0 0 56 VBottom 2
WINDOW 3 32 56 VTop 2
SYMATTR InstName R14
SYMATTR Value 3.4k
SYMBOL voltage 1248 896 R0
WINDOW 123 0 0 Left 0
WINDOW 39 0 0 Left 0
WINDOW 3 24 44 Left 2
SYMATTR InstName V5
SYMATTR Value 5
SYMBOL voltage 1808 384 R0
WINDOW 123 0 0 Left 0
WINDOW 39 0 0 Left 0
SYMATTR InstName V6
SYMATTR Value 12
SYMBOL OpAmps\\OP07 1888 800 R0
SYMATTR InstName U4
SYMBOL voltage 1712 1056 R0
WINDOW 123 0 0 Left 0
WINDOW 39 0 0 Left 0
SYMATTR InstName V7
SYMATTR Value 1.65
SYMBOL h 1712 928 R0
WINDOW 123 24 124 Left 2
SYMATTR Value2 -0.066
SYMATTR InstName H1
SYMATTR Value V3
SYMBOL diode 752 560 R90
WINDOW 0 0 32 VBottom 2
WINDOW 3 32 32 VTop 2
SYMATTR InstName D2
SYMBOL diode 496 640 R180
WINDOW 0 24 64 Left 2
WINDOW 3 24 0 Left 2
SYMATTR InstName D3
SYMBOL OpAmps\\OP07 384 736 R0
SYMATTR InstName U5
SYMBOL XL4016 128 80 R0
SYMATTR InstName U6
SYMBOL XL4016 128 -112 R0
SYMATTR InstName U7
SYMBOL cap 64 -112 R90
WINDOW 0 0 32 VBottom 2
WINDOW 3 32 32 VTop 2
SYMATTR InstName CC2
SYMATTR Value 1µ
SYMBOL schottky 352 112 M180
WINDOW 0 24 64 Left 2
WINDOW 3 24 0 Left 2
SYMATTR InstName D4
SYMATTR Value MBRB2545CT
SYMATTR Description Zener Diode
SYMATTR Type zener
SYMBOL schottky 336 -80 M180
WINDOW 0 24 64 Left 2
WINDOW 3 24 0 Left 2
SYMATTR InstName D5
SYMATTR Value MBRB2545CT
SYMATTR Description Zener Diode
SYMATTR Type zener
SYMBOL ind 432 64 R270
WINDOW 0 32 56 VTop 2
WINDOW 3 5 56 VBottom 2
SYMATTR InstName L2
SYMATTR Value 47µ
SYMBOL cap 16 80 R90
WINDOW 0 0 32 VBottom 2
WINDOW 3 32 32 VTop 2
SYMATTR InstName CC1
SYMATTR Value 1µ
TEXT 1296 504 Left 2 ;8A
TEXT -192 616 Left 2 !.tran 10m
TEXT 1080 376 VCenter 1 ;Second output cap not needed\nin the simulation, because of\n ideal 1000uF cap
TEXT -424 664 Left 2 !;.step param vp list 2.7 2.4 2.1 1.8 1.5 1.2 0.9
