Version 4
SHEET 1 1236 1516
WIRE -96 240 -176 240
WIRE 64 240 -96 240
WIRE 256 240 192 240
WIRE 368 240 256 240
WIRE 464 240 368 240
WIRE 640 240 544 240
WIRE 768 240 640 240
WIRE 992 240 768 240
WIRE -96 288 -96 240
WIRE -48 288 -96 288
WIRE 32 288 16 288
WIRE 64 288 32 288
WIRE 256 288 192 288
WIRE 288 288 256 288
WIRE 368 288 368 240
WIRE 640 288 640 240
WIRE -176 336 -176 240
WIRE 768 336 768 240
WIRE 992 352 992 320
WIRE 640 384 640 368
WIRE 640 384 416 384
WIRE 288 416 288 288
WIRE 640 416 640 384
WIRE -656 448 -656 368
WIRE 368 528 368 352
WIRE 640 528 640 496
WIRE 640 528 368 528
WIRE 768 528 768 400
WIRE 768 528 640 528
WIRE 992 528 992 432
WIRE 992 528 768 528
WIRE -656 544 -656 528
WIRE -176 544 -176 416
WIRE 128 544 128 336
WIRE 992 544 992 528
WIRE 288 608 288 496
WIRE 704 608 288 608
WIRE 464 752 16 752
WIRE 608 768 528 768
WIRE 416 784 416 384
WIRE 464 784 416 784
WIRE 16 816 16 752
WIRE 704 848 704 608
WIRE 704 848 608 848
FLAG -176 544 0
FLAG -176 240 in
FLAG 128 544 0
FLAG 992 240 out
FLAG -656 544 0
FLAG 32 288 vc
FLAG 256 240 sw
FLAG 256 288 fb
FLAG 992 544 0
FLAG 496 736 in
FLAG 496 800 0
FLAG 16 896 0
FLAG 608 928 0
FLAG -16 1472 0
SYMBOL voltage -176 320 M0
WINDOW 123 0 0 Left 0
WINDOW 39 0 0 Left 0
SYMATTR InstName V_in
SYMATTR Value {Vin}
SYMBOL cap 16 272 R90
WINDOW 0 0 32 VBottom 2
WINDOW 3 32 32 VTop 2
SYMATTR InstName CC
SYMATTR Value 1µ
SYMBOL ind 448 256 R270
WINDOW 0 32 56 VTop 2
WINDOW 3 5 56 VBottom 2
SYMATTR InstName L1
SYMATTR Value 47µ
SYMBOL schottky 352 352 M180
WINDOW 0 24 64 Left 2
WINDOW 3 24 0 Left 2
SYMATTR InstName D1
SYMATTR Value MBRB2545CT
SYMATTR Description Zener Diode
SYMATTR Type zener
SYMBOL XL4016 128 272 R0
SYMATTR InstName U1
SYMBOL res 304 512 R180
WINDOW 0 36 76 Left 2
WINDOW 3 36 40 Left 2
SYMATTR InstName R3
SYMATTR Value 10k
SYMBOL diode -640 368 R180
WINDOW 0 24 64 Left 2
WINDOW 3 24 0 Left 2
SYMATTR InstName D2
SYMATTR Value 1N4148
SYMBOL voltage -656 432 R0
WINDOW 123 0 0 Left 0
WINDOW 39 0 0 Left 0
SYMATTR InstName V2
SYMATTR Value PULSE(0 3.3 10m 1m 1m 9m)
SYMBOL res 976 336 R0
SYMATTR InstName R_load
SYMATTR Value 2
SYMBOL voltage 16 800 R0
WINDOW 123 0 0 Left 0
WINDOW 39 0 0 Left 0
SYMATTR InstName V1
SYMATTR Value 0.5
SYMBOL res 624 272 R0
SYMATTR InstName R8
SYMATTR Value 9k
SYMBOL res 624 400 R0
SYMATTR InstName R9
SYMATTR Value 1k
SYMBOL res 592 752 R0
SYMATTR InstName R1
SYMATTR Value 4k
SYMBOL res 592 832 R0
SYMATTR InstName R2
SYMATTR Value 1k
SYMBOL cap 752 336 R0
SYMATTR InstName Cout1
SYMATTR Value 1000µ
SYMBOL OpAmps\\OP07 496 704 R0
SYMATTR InstName U2
SYMBOL h -16 1376 R0
WINDOW 123 24 124 Left 2
SYMATTR InstName H1
SYMATTR Value V3
SYMATTR Value2 -0.066
SYMBOL voltage 992 224 R0
SYMATTR InstName V3
SYMBOL voltage -16 1296 R0
WINDOW 123 0 0 Left 0
WINDOW 39 0 0 Left 0
SYMATTR InstName V4
SYMATTR Value 2.5
SYMBOL OpAmps\\OP07 448 912 R0
SYMATTR InstName U3
TEXT 152 112 Center 3 ;Testing XL4016 EasyEDA LTspice model
TEXT -216 376 Right 2 ;8-40V
TEXT -608 368 Left 2 ;TTL shutdown
TEXT 1008 440 Left 2 ;8A
TEXT -192 616 Left 2 !.tran 10m
TEXT -192 648 Left 2 !.param Vin=30
TEXT -192 680 Left 2 ;Doesn't work at Vin=8.0V
TEXT 152 144 Center 2 ;with ideal components
TEXT -120 408 VCenter 1 ;Input caps not needed\nwith ideal voltage source\nin the simulation
