Version 4
SHEET 1 2132 1172
WIRE -96 240 -176 240
WIRE 64 240 -96 240
WIRE 256 240 192 240
WIRE 368 240 256 240
WIRE 464 240 368 240
WIRE 672 240 544 240
WIRE 1152 240 672 240
WIRE 1280 240 1152 240
WIRE 672 272 672 240
WIRE -96 288 -96 240
WIRE -48 288 -96 288
WIRE 32 288 16 288
WIRE 64 288 32 288
WIRE 256 288 192 288
WIRE 288 288 256 288
WIRE 368 288 368 240
WIRE 1280 288 1280 240
WIRE -176 336 -176 240
WIRE 1152 336 1152 240
WIRE 672 384 672 352
WIRE 672 416 672 384
WIRE 1280 416 1280 368
WIRE 368 528 368 352
WIRE 672 528 672 496
WIRE 672 528 368 528
WIRE 1152 528 1152 400
WIRE 1152 528 672 528
WIRE 1280 528 1280 496
WIRE 1280 528 1152 528
WIRE -176 544 -176 416
WIRE 128 544 128 336
WIRE 1280 544 1280 528
WIRE 288 576 288 288
WIRE 528 576 288 576
WIRE 2064 576 528 576
WIRE 400 640 352 640
WIRE 528 640 528 576
WIRE 576 640 528 640
WIRE 688 640 656 640
WIRE 352 656 352 640
WIRE 1200 672 1008 672
WIRE 192 688 160 688
WIRE 320 688 272 688
WIRE 432 704 384 704
WIRE 608 720 496 720
WIRE 320 736 320 688
WIRE 432 736 320 736
WIRE 1200 736 1200 672
WIRE 1280 736 1200 736
WIRE 1504 752 1456 752
WIRE 1616 752 1584 752
WIRE 1008 768 1008 672
WIRE 1040 768 1008 768
WIRE 192 784 160 784
WIRE 320 784 320 736
WIRE 320 784 272 784
WIRE 608 784 608 720
WIRE 688 784 688 640
WIRE 688 784 608 784
WIRE 1200 784 1200 736
WIRE 1200 784 1104 784
WIRE 912 800 864 800
WIRE 1008 800 992 800
WIRE 1040 800 1008 800
WIRE 384 816 384 704
WIRE 432 816 384 816
WIRE 608 816 608 784
WIRE 608 816 512 816
WIRE 1280 816 1280 736
WIRE 1344 816 1280 816
WIRE 1456 816 1456 752
WIRE 1456 816 1424 816
WIRE 1616 816 1616 752
WIRE 1744 816 1616 816
WIRE 384 848 384 816
WIRE 1744 848 1744 816
WIRE 1856 848 1744 848
WIRE 864 864 864 800
WIRE 1008 864 1008 800
WIRE 1456 864 1456 816
WIRE 1504 864 1456 864
WIRE 2064 864 2064 576
WIRE 2064 864 1920 864
WIRE 2128 864 2064 864
WIRE 1616 880 1616 816
WIRE 1616 880 1568 880
WIRE 1856 880 1712 880
WIRE 1344 896 1248 896
WIRE 1456 896 1424 896
WIRE 1504 896 1456 896
WIRE 1248 912 1248 896
WIRE 1456 912 1456 896
WIRE 1712 944 1712 880
WIRE 1712 1072 1712 1024
FLAG -176 544 0
FLAG -176 240 in
FLAG 128 544 0
FLAG 1280 240 out
FLAG 32 288 vc
FLAG 256 240 sw
FLAG 256 288 fb
FLAG 1280 544 0
FLAG 672 384 ref
FLAG 464 752 0
FLAG 384 928 0
FLAG 464 688 in
FLAG 160 688 ref
FLAG -144 832 0
FLAG -144 752 vp
FLAG 160 784 vp
FLAG 352 656 0
FLAG 1008 944 0
FLAG 864 944 0
FLAG 1072 816 0
FLAG 1536 912 0
FLAG 1456 992 0
FLAG 1248 992 0
FLAG 1808 480 0
FLAG 1808 400 12v
FLAG 1536 848 12v
FLAG 1072 752 12v
FLAG 1888 832 12v
FLAG 1888 896 0
FLAG 1712 1152 0
SYMBOL cap 16 272 R90
WINDOW 0 0 32 VBottom 2
WINDOW 3 32 32 VTop 2
SYMATTR InstName CC
SYMATTR Value 1µ
SYMBOL ind 448 256 R270
WINDOW 0 32 56 VTop 2
WINDOW 3 5 56 VBottom 2
SYMATTR InstName L1
SYMATTR Value 47µ
SYMBOL schottky 352 352 M180
WINDOW 0 24 64 Left 2
WINDOW 3 24 0 Left 2
SYMATTR InstName D1
SYMATTR Value MBRB2545CT
SYMATTR Description Zener Diode
SYMATTR Type zener
SYMBOL XL4016 128 272 R0
SYMATTR InstName U1
SYMBOL cap 1136 336 R0
SYMATTR InstName Cout
SYMATTR Value 1000µ
SYMBOL res 656 256 R0
SYMATTR InstName R1
SYMATTR Value 9K
SYMBOL res 656 400 R0
SYMATTR InstName R2
SYMATTR Value 1K
SYMBOL res 1264 400 R0
SYMATTR InstName R_load
SYMATTR Value 10
SYMBOL voltage -176 320 R0
WINDOW 123 0 0 Left 0
WINDOW 39 0 0 Left 0
SYMATTR InstName V1
SYMATTR Value 30
SYMBOL res 368 832 R0
SYMATTR InstName R3
SYMATTR Value 2k
SYMBOL res 528 800 R90
WINDOW 0 0 56 VBottom 2
WINDOW 3 32 56 VTop 2
SYMATTR InstName R4
SYMATTR Value 2k
SYMBOL res 288 672 R90
WINDOW 0 0 56 VBottom 2
WINDOW 3 32 56 VTop 2
SYMATTR InstName R5
SYMATTR Value 2k
SYMBOL res 288 768 R90
WINDOW 0 0 56 VBottom 2
WINDOW 3 32 56 VTop 2
SYMATTR InstName R6
SYMATTR Value 2k
SYMBOL voltage -144 736 R0
WINDOW 123 0 0 Left 0
WINDOW 39 0 0 Left 0
SYMATTR InstName V2
SYMATTR Value 1.5
SYMBOL res 672 624 R90
WINDOW 0 0 56 VBottom 2
WINDOW 3 32 56 VTop 2
SYMATTR InstName R7
SYMATTR Value 1k
SYMBOL res 496 624 R90
WINDOW 0 0 56 VBottom 2
WINDOW 3 32 56 VTop 2
SYMATTR InstName R8
SYMATTR Value 0.6k
SYMBOL voltage 1280 272 R0
SYMATTR InstName V3
SYMBOL OpAmps\\UniversalOpAmp 1072 784 R0
SYMATTR InstName U2
SYMBOL OpAmps\\UniversalOpAmp 1536 880 R0
SYMATTR InstName U3
SYMBOL res 1008 784 R90
WINDOW 0 0 56 VBottom 2
WINDOW 3 32 56 VTop 2
SYMATTR InstName R9
SYMATTR Value 4.3k
SYMBOL res 1024 960 R180
WINDOW 0 36 76 Left 2
WINDOW 3 36 40 Left 2
SYMATTR InstName R10
SYMATTR Value 820
SYMBOL voltage 864 848 R0
WINDOW 123 0 0 Left 0
WINDOW 39 0 0 Left 0
SYMATTR InstName V4
SYMATTR Value 5
SYMBOL res 1440 896 R0
SYMATTR InstName R11
SYMATTR Value 5k
SYMBOL res 1440 880 R90
WINDOW 0 0 56 VBottom 2
WINDOW 3 32 56 VTop 2
SYMATTR InstName R12
SYMATTR Value 10k
SYMBOL res 1440 800 R90
WINDOW 0 0 56 VBottom 2
WINDOW 3 32 56 VTop 2
SYMATTR InstName R13
SYMATTR Value 10k
SYMBOL res 1600 736 R90
WINDOW 0 0 56 VBottom 2
WINDOW 3 32 56 VTop 2
SYMATTR InstName R14
SYMATTR Value 5k
SYMBOL voltage 1248 896 R0
WINDOW 123 0 0 Left 0
WINDOW 39 0 0 Left 0
SYMATTR InstName V5
SYMATTR Value 3.3
SYMBOL voltage 1808 384 R0
SYMATTR InstName V6
SYMBOL OpAmps\\OP07 1888 800 R0
SYMATTR InstName U4
SYMBOL voltage 1712 1056 R0
WINDOW 123 0 0 Left 0
WINDOW 39 0 0 Left 0
SYMATTR InstName V7
SYMATTR Value 1.65
SYMBOL h 1712 928 R0
WINDOW 123 24 124 Left 2
SYMATTR InstName H1
SYMATTR Value V3
SYMATTR Value2 -0.066
SYMBOL OpAmps\\OP284 464 656 R0
SYMATTR InstName U5
TEXT 152 112 Center 3 ;Testing XL4016 EasyEDA LTspice model
TEXT 1296 504 Left 2 ;8A
TEXT -192 616 Left 2 !.tran 10m
TEXT 152 144 Center 2 ;with ideal components
TEXT 1080 376 VCenter 1 ;Second output cap not needed\nin the simulation, because of\n ideal 1000uF cap
TEXT -424 664 Left 2 !;.step param vp list 2.7 2.4 2.1 1.8 1.5 1.2 0.9
